87
symmetry c1
N       -0.690648532      0.504560619     -0.577877420
P       -2.336025008      0.124387548     -0.422807668
O       -2.617144661     -0.982767442      0.491300825
O       -2.837627775     -0.068835736     -1.921980652
O       -3.104049582      1.498610806     -0.150389831
C       -2.968752767      2.069918975      1.170138533
C       -2.538732906     -1.342869388     -2.543527030
H       -3.611696535      1.507575123      1.854019959
C       -3.370357322      3.521527115      1.083265355
H       -1.937671561      1.951710196      1.517592229
H       -2.432690055     -1.122457140     -3.608794622
H       -1.579344733     -1.718237959     -2.174938173
C       -3.641434080     -2.344550355     -2.292559711
C        3.603719116     -1.213977912      1.006051429
C        3.334519789     -1.567671107     -0.361721228
C        1.963799876     -2.016775213     -0.441975586
C        2.411671939     -1.476021129      1.782458393
C        1.463565668     -2.239589198      0.934870455
O        0.438816651     -2.829168449      1.271381468
Fe       2.168081122      0.019217919      0.234492625
C        0.227488509      0.302260997      0.559898575
O       -0.258493991      0.242369786      1.662323240
C        2.505532009      1.448596668      1.164682998
O        2.722147405      2.412082633      1.767323660
C        2.485834817      0.874809643     -1.248804677
O        2.857206773      1.430549850     -2.195827904
C        2.266430467     -1.279858062      3.226616622
C        1.320949104     -2.025126888      3.949672133
H        0.685095936     -2.712582727      3.407849526
C        1.185186231     -1.859685782      5.322007285
H        0.441377793     -2.444652719      5.854611668
C        1.978924602     -0.950971439      6.012596757
H        1.866895671     -0.822628448      7.084715983
C        2.909441882     -0.194551076      5.305731664
H        3.526142558      0.534503808      5.822328487
C        3.049305313     -0.353692343      3.935434051
H        3.765404208      0.263993225      3.408362608
C        4.955323456     -0.981035170      1.551404189
C        5.678318346      0.195034242      1.345760265
H        5.217095079      1.004290847      0.791107770
C        6.956273957      0.344955941      1.871803048
H        7.499873993      1.269194031      1.704601708
C        7.531483074     -0.676680419      2.618778831
H        8.526902523     -0.557208113      3.033723722
C        6.815910350     -1.849811340      2.839453138
H        7.251391755     -2.650683890      3.428151312
C        5.540694011     -1.998988718      2.312629350
H        4.975118994     -2.907063387      2.493664808
C        4.362026085     -1.764017070     -1.399026730
C        5.261670394     -0.770838056     -1.794831415
H        5.169648068      0.223721959     -1.379992314
C        6.248621389     -1.038878613     -2.735394431
H        6.932954026     -0.250081198     -3.030523310
C        6.352649216     -2.302106933     -3.306465006
H        7.119578556     -2.507575891     -4.046104779
C        5.457891722     -3.298126716     -2.927161566
H        5.524446092     -4.287759878     -3.367487617
C        4.474457115     -3.031952639     -1.985272326
H        3.776256850     -3.808367446     -1.692348451
C        1.289580338     -2.500002146     -1.648456414
C        0.396148561     -3.581438570     -1.570224276
H        0.181477278     -4.002218325     -0.596531741
C       -0.217949076     -4.079409576     -2.713900383
H       -0.905435226     -4.915296575     -2.625612947
C        0.032834291     -3.513992654     -3.959315370
H       -0.451060430     -3.903245321     -4.849598103
C        0.909175780     -2.434490897     -4.048232059
H        1.110942251     -1.973702164     -5.010450217
C        1.527053147     -1.934559196     -2.911390562
H        2.196353684     -1.086906346     -3.000984579
H       -3.414633014     -3.272398337     -2.825443910
H       -4.600172241     -1.960499975     -2.649789849
H       -3.715660050     -2.557186636     -1.225528901
H       -2.716461567      4.058218497      0.392336613
H       -4.399234469      3.618583685      0.728897347
H       -3.295442450      3.988197205      2.068852756
C       -0.336617362      1.486096174     -1.546776970
C       -0.298329572      1.189531024     -2.907758727
H       -0.502187421      0.178206157     -3.233794139
C        0.036896683      2.173945976     -3.827099706
H        0.072624167      1.928452582     -4.883592355
C        0.353866945      3.459144011     -3.400077366
H        0.630126790      4.221384984     -4.120876919
C        0.329527832      3.756746350     -2.041826011
H        0.586213444      4.752832533     -1.696333700
C       -0.022873406      2.779477952     -1.121163117
H       -0.047693708      3.002367540     -0.059194047

